
**** 05/13/24 16:50:40 ***** PSpice 23.1.0 (6 March 2024) ***** ID# 0 ********

 ** Profile: "SCHEMATIC1-sim2"  [ C:\Users\solx\Desktop\CAD\Proiect-PSpiceFiles\SCHEMATIC1\sim2.sim ] 


 ****     CIRCUIT DESCRIPTION


******************************************************************************




** Creating circuit file "sim2.cir" 
** WARNING: THIS AUTOMATICALLY GENERATED FILE MAY BE OVERWRITTEN BY SUBSEQUENT SIMULATIONS

*Libraries: 
* Profile Libraries :
* Local Libraries :
* From [PSPICE NETLIST] section of C:\Users\solx\AppData\Roaming\SPB_Data\cdssetup\OrCAD_PSpice\23.1.0\PSpice.ini file:
.lib "nom.lib" 

*Analysis directives: 
.DC LIN V_Vcc 0 15 1 
.STEP PARAM R LIST 79 69 59 49 35 
.OPTIONS ADVCONV
.PROBE64 V(alias(*)) I(alias(*)) W(alias(*)) D(alias(*)) NOISE(alias(*)) 
.INC "..\SCHEMATIC1.net" 



**** INCLUDING SCHEMATIC1.net ****
* source PROIECT
V_Vcc         +VCC 0 15V
V_-Vcc         0 -VCC 15V
X_U1A         OUT1 OUT2 N00300 +VCC -VCC awbtl082
R_R4         +VCC OUT1  79.2k TC=0,0 
R_R5         OUT1 0  {R} TC=0,0 
R_R6         +VCC OUT2  79.2k TC=0,0 
R_R7         OUT2 0  79.2k TC=0,0 
.PARAM  r=79k

**** RESUMING sim2.cir ****
.END

**** 05/13/24 16:50:40 ***** PSpice 23.1.0 (6 March 2024) ***** ID# 0 ********

 ** Profile: "SCHEMATIC1-sim2"  [ C:\Users\solx\Desktop\CAD\Proiect-PSpiceFiles\SCHEMATIC1\sim2.sim ] 


 ****     Diode MODEL PARAMETERS


******************************************************************************




               X_U1A.DAMP1     X_U1A.DAMP2     
          IS    8.280000E-15   10.000000E-15 
           N     .75                         


**** 05/13/24 16:50:40 ***** PSpice 23.1.0 (6 March 2024) ***** ID# 0 ********

 ** Profile: "SCHEMATIC1-sim2"  [ C:\Users\solx\Desktop\CAD\Proiect-PSpiceFiles\SCHEMATIC1\sim2.sim ] 


 ****     MOSFET MODEL PARAMETERS


******************************************************************************




               X_U1A.MAMP1     X_U1A.MAMP2     
               PMOS            PMOS            
       LEVEL    1               1            
           L  100.000000E-06  100.000000E-06 
           W  100.000000E-06  100.000000E-06 
         VTO    1               1.003        
          KP  273.312000E-06  273.312000E-06 
       GAMMA    0               0            
         PHI     .6              .6          
      LAMBDA    0               0            
          IS   10.000000E-15   10.000000E-15 
          JS    0               0            
          PB     .8              .8          
        PBSW     .8              .8          
          CJ    0               0            
        CJSW    0               0            
        CGSO    1.000000E-18    1.000000E-18 
        CGDO    1.000000E-18    1.000000E-18 
        CGBO    0               0            
         TOX    0               0            
          XJ    0               0            
       UCRIT   10.000000E+03   10.000000E+03 
      DIOMOD    1               1            
         VFB    0               0            
        LETA    0               0            
        WETA    0               0            
          U0    0               0            
        TEMP    0               0            
         VDD    5               5            
       XPART    0               0            



          JOB CONCLUDED

**** 05/13/24 16:50:40 ***** PSpice 23.1.0 (6 March 2024) ***** ID# 0 ********

 ** Profile: "SCHEMATIC1-sim2"  [ C:\Users\solx\Desktop\CAD\Proiect-PSpiceFiles\SCHEMATIC1\sim2.sim ] 


 ****     JOB STATISTICS SUMMARY

 ****     CURRENT STEP                     PARAM R =   35    


******************************************************************************



  Total job time (using Solver 1)   =         .25
