
**** 06/03/24 19:18:44 ***** PSpice 23.1.0 (17 April 2024) **** ID# 0 ********

 ** Profile: "SCHEMATIC1-sim1"  [ c:\users\solx\desktop\cad\proiect-pspicefiles\schematic1\sim1.sim ] 


 ****     CIRCUIT DESCRIPTION


******************************************************************************




** Creating circuit file "sim1.cir" 
** WARNING: THIS AUTOMATICALLY GENERATED FILE MAY BE OVERWRITTEN BY SUBSEQUENT SIMULATIONS

*Libraries: 
* Profile Libraries :
* Local Libraries :
.LIB "../../../yellowled.lib" 
* From [PSPICE NETLIST] section of C:\Users\solx\AppData\Roaming\SPB_Data\cdssetup\OrCAD_PSpice\23.1.0\PSpice.ini file:
.lib "nom.lib" 

*Analysis directives: 
.DC LIN PARAM M_carbon 200 5000 1 
.OPTIONS ADVCONV
.PROBE64 V(alias(*)) I(alias(*)) W(alias(*)) D(alias(*)) NOISE(alias(*)) 
.INC "..\SCHEMATIC1.net" 



**** INCLUDING SCHEMATIC1.net ****
* source PROIECT
V_Vcc         +VCC 0 15V
V_-Vcc         0 -VCC 15V
R_R1         VO_DIV1 +VCC R_R1 78.7k TC=0,0 
.model        R_R1 RES R=1 DEV=1% TC1=0 TC2=0
R_R2         0 VO_DIV1  {R} TC=0,0 
R_R3         N01917 N02306 R_R3 1k TC=0,0 
.model        R_R3 RES R=1 DEV=1% TC1=0 TC2=0
R_R4         N22636 AO R_R4 5.23k TC=0,0 
.model        R_R4 RES R=1 DEV=1% TC1=0 TC2=0
R_R5         V_REF1 N02428 R_R5 1k TC=0,0 
.model        R_R5 RES R=1 DEV=1% TC1=0 TC2=0
R_R13         OUT N03820 R_R13 158k TC=0,0 
.model        R_R13 RES R=1 DEV=1% TC1=0 TC2=0
R_R14         N21753 +VCC R_R14 360 TC=0,0 
.model        R_R14 RES R=1 DEV=1% TC1=0 TC2=0
R_R9         N06316 N22753 R_R9 28.7k TC=0,0 
.model        R_R9 RES R=1 DEV=1% TC1=0 TC2=0
R_R10         0 VREF2 R_R10 583 TC=0,0 
.model        R_R10 RES R=1 DEV=1% TC1=0 TC2=0
R_R11         VREF2 +VCC R_R11 1k TC=0,0 
.model        R_R11 RES R=1 DEV=1% TC1=0 TC2=0
R_R8         AO N06316 R_R8 11k TC=0,0 
.model        R_R8 RES R=1 DEV=1% TC1=0 TC2=0
D_D2          N21731 0 YellowLED 
R_R12         N21731 OUT R_R12 357 TC=0,0 
.model        R_R12 RES R=1 DEV=1% TC1=0 TC2=0
R_R7         V_REF1 +VCC R_R7 1k TC=0,0 
.model        R_R7 RES R=1 DEV=1% TC1=0 TC2=0
R_R6         0 V_REF1 R_R6 782 TC=0,0 
.model        R_R6 RES R=1 DEV=1% TC1=0 TC2=0
Q_Q2         N21753 N03820 0 BC108C 
X_U7         N06316 VREF2 +VCC -VCC N17258 LM741
X_U8         N02428 N02306 +VCC -VCC AO LM741
X_U9         VO_DIV1 N01917 +VCC -VCC N01917 LM741
X_U10         OUT N17258 +VCC 0 OUT LM741
R_R15         N22753 N17258 R_R15 604 TC=0,0 
.model        R_R15 RES R=1 DEV=1% TC1=0 TC2=0
R_R16         N02306 N22636 R_R16 6.98 TC=0,0 
.model        R_R16 RES R=1 DEV=1% TC1=0 TC2=0
.PARAM  m_carbon=200 r={((-8.8889*{m_carbon}) + 79444)}

**** RESUMING sim1.cir ****
.END

**** 06/03/24 19:18:44 ***** PSpice 23.1.0 (17 April 2024) **** ID# 0 ********

 ** Profile: "SCHEMATIC1-sim1"  [ c:\users\solx\desktop\cad\proiect-pspicefiles\schematic1\sim1.sim ] 


 ****     Diode MODEL PARAMETERS


******************************************************************************




               YellowLED       X_U7.x_lm741.dx X_U7.x_lm741.dy X_U8.x_lm741.dx 
          IS   10.000000E-21  800.000000E-18  800.000000E-18  800.000000E-18 
           N    1.2908                                                       
          RS   19.674           1               1.000000E-03    1            
         CJO                                   10.000000E-12                 


               X_U8.x_lm741.dy X_U9.x_lm741.dx X_U9.x_lm741.dy 
          IS  800.000000E-18  800.000000E-18  800.000000E-18 
          RS    1.000000E-03    1               1.000000E-03 
         CJO   10.000000E-12                   10.000000E-12 


               X_U10.x_lm741.dx 
          IS  800.000000E-18 
          RS    1            


               X_U10.x_lm741.dy 
          IS  800.000000E-18 
          RS    1.000000E-03 
         CJO   10.000000E-12 


**** 06/03/24 19:18:44 ***** PSpice 23.1.0 (17 April 2024) **** ID# 0 ********

 ** Profile: "SCHEMATIC1-sim1"  [ c:\users\solx\desktop\cad\proiect-pspicefiles\schematic1\sim1.sim ] 


 ****     BJT MODEL PARAMETERS


******************************************************************************




               BC108C          X_U7.x_lm741.qx X_U8.x_lm741.qx X_U9.x_lm741.qx 
               NPN             NPN             NPN             NPN             
       LEVEL    1               1               1               1            
          IS    7.049000E-15  800.000000E-18  800.000000E-18  800.000000E-18 
          BF  677              93.75           93.75           93.75         
          NF    1               1               1               1            
         VAF   28.14                                                         
         IKF   96.23                                                         
         ISE    7.049000E-15                                                 
          NE    1.38                                                         
          BR    2.209           1               1               1            
          NR    1               1               1               1            
         IKR   10.73                                                         
         ISC  250.300000E-12                                                 
          NC    2.002                                                        
         ISS    0               0               0               0            
          RE    0               0               0               0            
          RC    1.433           0               0               0            
         CJE   11.500000E-12    0               0               0            
         VJE     .5              .75             .75             .75         
         MJE     .2717                                                       
         CJC    5.380000E-12    0               0               0            
         VJC     .6218           .75             .75             .75         
         MJC     .329            .33             .33             .33         
        XCJC    1               1               1               1            
         CJS    0               0               0               0            
         VJS     .75             .75             .75             .75         
          TF  437.800000E-12                                                 
         XTF   12.85                                                         
         VTF   10                                                            
         ITF    3.097                                                        
          TR   10.000000E-09                                                 
         XTB    1.5                                                          
          KF    0               0               0               0            
          AF    1               1               1               1            
          CN    2.42            2.42            2.42            2.42         
           D     .87             .87             .87             .87         


               X_U10.x_lm741.qx 
               NPN             
       LEVEL    1            
          IS  800.000000E-18 
          BF   93.75         
          NF    1            
          BR    1            
          NR    1            
         ISS    0            
          RE    0            
          RC    0            
         CJE    0            
         VJE     .75         
         CJC    0            
         VJC     .75         
         MJC     .33         
        XCJC    1            
         CJS    0            
         VJS     .75         
          KF    0            
          AF    1            
          CN    2.42         
           D     .87         


**** 06/03/24 19:18:44 ***** PSpice 23.1.0 (17 April 2024) **** ID# 0 ********

 ** Profile: "SCHEMATIC1-sim1"  [ c:\users\solx\desktop\cad\proiect-pspicefiles\schematic1\sim1.sim ] 


 ****     Resistor MODEL PARAMETERS


******************************************************************************




               R_R1            R_R3            R_R4            R_R5            
           R    1               1               1               1            


               R_R13           R_R14           R_R9            R_R10           
           R    1               1               1               1            


               R_R11           R_R8            R_R12           R_R7            
           R    1               1               1               1            


               R_R6            R_R15           R_R16           
           R    1               1               1            



          JOB CONCLUDED

**** 06/03/24 19:18:44 ***** PSpice 23.1.0 (17 April 2024) **** ID# 0 ********

 ** Profile: "SCHEMATIC1-sim1"  [ c:\users\solx\desktop\cad\proiect-pspicefiles\schematic1\sim1.sim ] 


 ****     JOB STATISTICS SUMMARY


******************************************************************************



  Total job time (using Solver 1)   =        1.31
